powerflow/Codes/PF_Formulation/resultados_csv/16/test_system/ramos.csv
caso,script,branch_id,f_bus,t_bus,pf_pu,qf_pu,pt_pu,qt_pu,loss_p_pu,loss_q_pu
test_system.pwf,16,1,24,26,-0.3460000000000001,-0.06900000000868838,0.3471328281355689,-0.00946762900075111,0.0011328281355688086,-0.07846762900943949
test_system.pwf,16,2,26,29,-0.3471328281355689,0.009467628994229062,0.34828553829203135,-0.08748072038203694,0.0011527101564624553,-0.07801309138780788
test_system.pwf,16,7,23,29,0.34828553829203124,-0.0798849782072395,-0.34828553829203124,0.08748072038058297,0.0,0.007595742173343467
